#======================================================================

# CRYSTAL DATA

#----------------------------------------------------------------------

data_VESTA_phase_1


_chemical_name_common                  'image0'
_cell_length_a                         3.90481
_cell_length_b                         3.90481
_cell_length_c                         15.14470
_cell_angle_alpha                      90
_cell_angle_beta                       90
_cell_angle_gamma                      90
_space_group_name_H-M_alt              'Custom'
_space_group_IT_number                 1

loop_
_space_group_symop_operation_xyz
   'x, y, z'

loop_
   _atom_site_label
   _atom_site_occupancy
   _atom_site_fract_x
   _atom_site_fract_y
   _atom_site_fract_z
   _atom_site_adp_type
   _atom_site_B_iso_or_equiv
   _atom_site_type_symbol
   Cs1        1.0     0.500000      0.500000      0.500000     Biso  1.000000 Cs
   Ca1        1.0     0.500000      0.500000      0.148100     Biso  1.000000 Ca
   Ca2        1.0     0.500000      0.500000      0.851900     Biso  1.000000 Ca
   Nb1        1.0     0.000000      0.000000      0.000000     Biso  1.000000 Nb
   Nb2        1.0     0.000000      0.000000      0.277660     Biso  1.000000 Nb
   Nb3        1.0     0.000000      0.000000      0.722340     Biso  1.000000 Nb
   O1         1.0     0.000000      0.500000      0.000000     Biso  1.000000 O
   O2         1.0     0.500000      0.000000      0.000000     Biso  1.000000 O
   O3         1.0     0.000000      0.000000      0.128160     Biso  1.000000 O
   O4         1.0     0.000000      0.000000      0.871840     Biso  1.000000 O
   O5         1.0     0.000000      0.500000      0.249900     Biso  1.000000 O
   O6         1.0     0.500000      0.000000      0.249900     Biso  1.000000 O
   O7         1.0     0.000000      0.500000      0.750100     Biso  1.000000 O
   O8         1.0     0.500000      0.000000      0.750100     Biso  1.000000 O
   O9         1.0     0.000000      0.000000      0.394640     Biso  1.000000 O
   O10        1.0     0.000000      0.000000      0.605360     Biso  1.000000 O
