#======================================================================

# CRYSTAL DATA

#----------------------------------------------------------------------

data_VESTA_phase_1


_chemical_name_common                  'image0'
_cell_length_a                         7.80961
_cell_length_b                         7.80961
_cell_length_c                         30.28940
_cell_angle_alpha                      90
_cell_angle_beta                       90
_cell_angle_gamma                      90
_space_group_name_H-M_alt              'P 1'
_space_group_IT_number                 1

loop_
_space_group_symop_operation_xyz
   'x, y, z'

loop_
   _atom_site_label
   _atom_site_occupancy
   _atom_site_fract_x
   _atom_site_fract_y
   _atom_site_fract_z
   _atom_site_adp_type
   _atom_site_B_iso_or_equiv
   _atom_site_type_symbol
   Cs1        1.0     0.250000      0.250000      0.250000     Biso  1.000000 Cs
   Cs2        1.0     0.750000      0.250000      0.250000     Biso  1.000000 Cs
   Cs3        1.0     0.250000      0.750000      0.250000     Biso  1.000000 Cs
   Cs4        1.0     0.750000      0.750000      0.250000     Biso  1.000000 Cs
   Cs5        1.0     0.250000      0.250000      0.750000     Biso  1.000000 Cs
   Cs6        1.0     0.750000      0.250000      0.750000     Biso  1.000000 Cs
   Cs7        1.0     0.250000      0.750000      0.750000     Biso  1.000000 Cs
   Cs8        1.0     0.750000      0.750000      0.750000     Biso  1.000000 Cs
   Ca1        1.0     0.235930      0.250000      0.074050     Biso  1.000000 Ca
   Ca2        1.0     0.735930      0.250000      0.074050     Biso  1.000000 Ca
   Ca3        1.0     0.235930      0.750000      0.074050     Biso  1.000000 Ca
   Ca4        1.0     0.735930      0.750000      0.074050     Biso  1.000000 Ca
   Ca5        1.0     0.264070      0.250000      0.574050     Biso  1.000000 Ca
   Ca6        1.0     0.764070      0.250000      0.574050     Biso  1.000000 Ca
   Ca7        1.0     0.264070      0.750000      0.574050     Biso  1.000000 Ca
   Ca8        1.0     0.764070      0.750000      0.574050     Biso  1.000000 Ca
   Ca9        1.0     0.264070      0.250000      0.425950     Biso  1.000000 Ca
   Ca10       1.0     0.764070      0.250000      0.425950     Biso  1.000000 Ca
   Ca11       1.0     0.264070      0.750000      0.425950     Biso  1.000000 Ca
   Ca12       1.0     0.764070      0.750000      0.425950     Biso  1.000000 Ca
   Ca13       1.0     0.235930      0.250000      0.925950     Biso  1.000000 Ca
   Ca14       1.0     0.735930      0.250000      0.925950     Biso  1.000000 Ca
   Ca15       1.0     0.235930      0.750000      0.925950     Biso  1.000000 Ca
   Ca16       1.0     0.735930      0.750000      0.925950     Biso  1.000000 Ca
   Nb1        1.0     0.993090      0.000000      1.000000     Biso  1.000000 Nb
   Nb2        1.0     0.493090      0.000000      1.000000     Biso  1.000000 Nb
   Nb3        1.0     0.993090      0.500000      1.000000     Biso  1.000000 Nb
   Nb4        1.0     0.493090      0.500000      1.000000     Biso  1.000000 Nb
   Nb5        1.0     0.006910      1.000000      0.500000     Biso  1.000000 Nb
   Nb6        1.0     0.506910      1.000000      0.500000     Biso  1.000000 Nb
   Nb7        1.0     0.006910      0.500000      0.500000     Biso  1.000000 Nb
   Nb8        1.0     0.506910      0.500000      0.500000     Biso  1.000000 Nb
   Nb9        1.0     0.998670      0.000000      0.138830     Biso  1.000000 Nb
   Nb10       1.0     0.498670      0.000000      0.138830     Biso  1.000000 Nb
   Nb11       1.0     0.998670      0.500000      0.138830     Biso  1.000000 Nb
   Nb12       1.0     0.498670      0.500000      0.138830     Biso  1.000000 Nb
   Nb13       1.0     0.001330      1.000000      0.638830     Biso  1.000000 Nb
   Nb14       1.0     0.501330      1.000000      0.638830     Biso  1.000000 Nb
   Nb15       1.0     0.001330      0.500000      0.638830     Biso  1.000000 Nb
   Nb16       1.0     0.501330      0.500000      0.638830     Biso  1.000000 Nb
   Nb17       1.0     0.001330      1.000000      0.361170     Biso  1.000000 Nb
   Nb18       1.0     0.501330      1.000000      0.361170     Biso  1.000000 Nb
   Nb19       1.0     0.001330      0.500000      0.361170     Biso  1.000000 Nb
   Nb20       1.0     0.501330      0.500000      0.361170     Biso  1.000000 Nb
   Nb21       1.0     0.998670      0.000000      0.861170     Biso  1.000000 Nb
   Nb22       1.0     0.498670      0.000000      0.861170     Biso  1.000000 Nb
   Nb23       1.0     0.998670      0.500000      0.861170     Biso  1.000000 Nb
   Nb24       1.0     0.498670      0.500000      0.861170     Biso  1.000000 Nb
   O1         1.0     0.036880      0.250000      1.000000     Biso  1.000000 O
   O2         1.0     0.536880      0.250000      1.000000     Biso  1.000000 O
   O3         1.0     0.036880      0.750000      1.000000     Biso  1.000000 O
   O4         1.0     0.536880      0.750000      1.000000     Biso  1.000000 O
   O5         1.0     0.963120      0.250000      0.500000     Biso  1.000000 O
   O6         1.0     0.463120      0.250000      0.500000     Biso  1.000000 O
   O7         1.0     0.963120      0.750000      0.500000     Biso  1.000000 O
   O8         1.0     0.463120      0.750000      0.500000     Biso  1.000000 O
   O9         1.0     0.261090      1.000000      1.000000     Biso  1.000000 O
   O10        1.0     0.761090      1.000000      1.000000     Biso  1.000000 O
   O11        1.0     0.261090      0.500000      1.000000     Biso  1.000000 O
   O12        1.0     0.761090      0.500000      1.000000     Biso  1.000000 O
   O13        1.0     0.238910      0.000000      0.500000     Biso  1.000000 O
   O14        1.0     0.738910      0.000000      0.500000     Biso  1.000000 O
   O15        1.0     0.238910      0.500000      0.500000     Biso  1.000000 O
   O16        1.0     0.738910      0.500000      0.500000     Biso  1.000000 O
   O17        1.0     0.007600      1.000000      0.064080     Biso  1.000000 O
   O18        1.0     0.507600      1.000000      0.064080     Biso  1.000000 O
   O19        1.0     0.007600      0.500000      0.064080     Biso  1.000000 O
   O20        1.0     0.507600      0.500000      0.064080     Biso  1.000000 O
   O21        1.0     0.992400      0.000000      0.564080     Biso  1.000000 O
   O22        1.0     0.492400      0.000000      0.564080     Biso  1.000000 O
   O23        1.0     0.992400      0.500000      0.564080     Biso  1.000000 O
   O24        1.0     0.492400      0.500000      0.564080     Biso  1.000000 O
   O25        1.0     0.992400      0.000000      0.435920     Biso  1.000000 O
   O26        1.0     0.492400      0.000000      0.435920     Biso  1.000000 O
   O27        1.0     0.992400      0.500000      0.435920     Biso  1.000000 O
   O28        1.0     0.492400      0.500000      0.435920     Biso  1.000000 O
   O29        1.0     0.007600      1.000000      0.935920     Biso  1.000000 O
   O30        1.0     0.507600      1.000000      0.935920     Biso  1.000000 O
   O31        1.0     0.007600      0.500000      0.935920     Biso  1.000000 O
   O32        1.0     0.507600      0.500000      0.935920     Biso  1.000000 O
   O33        1.0     0.000130      0.250000      0.124950     Biso  1.000000 O
   O34        1.0     0.500130      0.250000      0.124950     Biso  1.000000 O
   O35        1.0     0.000130      0.750000      0.124950     Biso  1.000000 O
   O36        1.0     0.500130      0.750000      0.124950     Biso  1.000000 O
   O37        1.0     0.999870      0.250000      0.624950     Biso  1.000000 O
   O38        1.0     0.499870      0.250000      0.624950     Biso  1.000000 O
   O39        1.0     0.999870      0.750000      0.624950     Biso  1.000000 O
   O40        1.0     0.499870      0.750000      0.624950     Biso  1.000000 O
   O41        1.0     0.250900      1.000000      0.124950     Biso  1.000000 O
   O42        1.0     0.750900      1.000000      0.124950     Biso  1.000000 O
   O43        1.0     0.250900      0.500000      0.124950     Biso  1.000000 O
   O44        1.0     0.750900      0.500000      0.124950     Biso  1.000000 O
   O45        1.0     0.249100      0.000000      0.624950     Biso  1.000000 O
   O46        1.0     0.749100      0.000000      0.624950     Biso  1.000000 O
   O47        1.0     0.249100      0.500000      0.624950     Biso  1.000000 O
   O48        1.0     0.749100      0.500000      0.624950     Biso  1.000000 O
   O49        1.0     0.999870      0.250000      0.375050     Biso  1.000000 O
   O50        1.0     0.499870      0.250000      0.375050     Biso  1.000000 O
   O51        1.0     0.999870      0.750000      0.375050     Biso  1.000000 O
   O52        1.0     0.499870      0.750000      0.375050     Biso  1.000000 O
   O53        1.0     0.000130      0.250000      0.875050     Biso  1.000000 O
   O54        1.0     0.500130      0.250000      0.875050     Biso  1.000000 O
   O55        1.0     0.000130      0.750000      0.875050     Biso  1.000000 O
   O56        1.0     0.500130      0.750000      0.875050     Biso  1.000000 O
   O57        1.0     0.249100      0.000000      0.375050     Biso  1.000000 O
   O58        1.0     0.749100      0.000000      0.375050     Biso  1.000000 O
   O59        1.0     0.249100      0.500000      0.375050     Biso  1.000000 O
   O60        1.0     0.749100      0.500000      0.375050     Biso  1.000000 O
   O61        1.0     0.250900      1.000000      0.875050     Biso  1.000000 O
   O62        1.0     0.750900      1.000000      0.875050     Biso  1.000000 O
   O63        1.0     0.250900      0.500000      0.875050     Biso  1.000000 O
   O64        1.0     0.750900      0.500000      0.875050     Biso  1.000000 O
   O65        1.0     0.001010      1.000000      0.197320     Biso  1.000000 O
   O66        1.0     0.501010      1.000000      0.197320     Biso  1.000000 O
   O67        1.0     0.001010      0.500000      0.197320     Biso  1.000000 O
   O68        1.0     0.501010      0.500000      0.197320     Biso  1.000000 O
   O69        1.0     0.998990      0.000000      0.697320     Biso  1.000000 O
   O70        1.0     0.498990      0.000000      0.697320     Biso  1.000000 O
   O71        1.0     0.998990      0.500000      0.697320     Biso  1.000000 O
   O72        1.0     0.498990      0.500000      0.697320     Biso  1.000000 O
   O73        1.0     0.998990      0.000000      0.302680     Biso  1.000000 O
   O74        1.0     0.498990      0.000000      0.302680     Biso  1.000000 O
   O75        1.0     0.998990      0.500000      0.302680     Biso  1.000000 O
   O76        1.0     0.498990      0.500000      0.302680     Biso  1.000000 O
   O77        1.0     0.001010      1.000000      0.802680     Biso  1.000000 O
   O78        1.0     0.501010      1.000000      0.802680     Biso  1.000000 O
   O79        1.0     0.001010      0.500000      0.802680     Biso  1.000000 O
   O80        1.0     0.501010      0.500000      0.802680     Biso  1.000000 O
