# CIF file created by ISOCIF, version 2.5.1               
# Space Group: 123 P4/mmm     D4h-1
# 
# Lattice parameters: a=3.92640, b=3.92640, c=15.18110, alpha=90.00000, beta=90.00000, gamma=90.00000
# K1 1d (1/2,1/2,1/2)
# Pb1 2h (1/2,1/2,z), z=0.14674
# Nb1 1a (0,0,0)
# Ta1 2g (0,0,z), z=0.28715
# O1 2f (0,1/2,0)
# O3 2g (0,0,z), z=0.13024
# O5 4i (0,1/2,z), z=0.26237
# O9 2g (0,0,z), z=0.40374
 
data_isocif-output
_audit_creation_method ISOCIF
 
_cell_length_a    3.92640
_cell_length_b    3.92640
_cell_length_c    15.18110
_cell_angle_alpha 90.00000
_cell_angle_beta  90.00000
_cell_angle_gamma 90.00000
 
_symmetry_space_group_name_H-M "P 4/m 2/m 2/m"
_symmetry_Int_Tables_number 123
_space_group.reference_setting '123:-P 4 2'
_space_group.transform_Pp_abc a,b,c;0,0,0
 
loop_
_space_group_symop_id
_space_group_symop_operation_xyz
1 x,y,z
2 x,-y,-z
3 -x,y,-z
4 -x,-y,z
5 -y,-x,-z
6 -y,x,z
7 y,-x,z
8 y,x,-z
9 -x,-y,-z
10 -x,y,z
11 x,-y,z
12 x,y,-z
13 y,x,z
14 y,-x,-z
15 -y,x,-z
16 -y,-x,z
 
loop_
_atom_site_label
_atom_site_type_symbol
_atom_site_symmetry_multiplicity
_atom_site_Wyckoff_label
_atom_site_fract_x
_atom_site_fract_y
_atom_site_fract_z
_atom_site_occupancy
K1  K    1 d 0.50000 0.50000 0.50000 1.00000
Pb1 Pb   2 h 0.50000 0.50000 0.14674 1.00000
Nb1 Nb   1 a 0.00000 0.00000 0.00000 1.00000
Ta1 Ta   2 g 0.00000 0.00000 0.28715 1.00000
O1  O    2 f 0.00000 0.50000 0.00000 1.00000
O3  O    2 g 0.00000 0.00000 0.13024 1.00000
O5  O    4 i 0.00000 0.50000 0.26237 1.00000
O9  O    2 g 0.00000 0.00000 0.40374 1.00000
 
